!-Generator IDFEditor 1.51
!-Option OriginalOrderTop UseSpecialFormat

!-NOTE: All comments with '!-' are ignored by the IDFEditor and are generated automatically.
!-      Use '!' comments if they need to be retained when using the IDFEditor.


Material,
    19C M70,                 !- Name
    MediumSmooth,            !- Roughness
    0.006,                   !- Thickness {m}
    1.09,                    !- Conductivity {W/m-K}
    576.7,                   !- Density {kg/m3}
    3.14,                    !- Specific Heat {J/kg-K}
    0.9,                     !- Thermal Absorptance
    0.7,                     !- Solar Absorptance
    0.7;                     !- Visible Absorptance

Material,
    29C M100,                !- Name
    MediumSmooth,            !- Roughness
    0.006,                   !- Thickness {m}
    0.54,                    !- Conductivity {W/m-K}
    845.8,                   !- Density {kg/m3}
    3.14,                    !- Specific Heat {J/kg-K}
    0.9,                     !- Thermal Absorptance
    0.7,                     !- Solar Absorptance
    0.7;                     !- Visible Absorptance

Material,
    S23,                     !- Name
    MediumSmooth,            !- Roughness
    0.0125,                  !- Thickness {m}
    0.54,                    !- Conductivity {W/m-K}
    1530,                    !- Density {kg/m3}
    2.2,                     !- Specific Heat {J/kg-K}
    0.9,                     !- Thermal Absorptance
    0.7,                     !- Solar Absorptance
    0.7;                     !- Visible Absorptance

Material,
    S24,                     !- Name
    MediumSmooth,            !- Roughness
    0.0125,                  !- Thickness {m}
    0.54,                    !- Conductivity {W/m-K}
    1530,                    !- Density {kg/m3}
    2.2,                     !- Specific Heat {J/kg-K}
    0.9,                     !- Thermal Absorptance
    0.7,                     !- Solar Absorptance
    0.7;                     !- Visible Absorptance

Material,
    S25,                     !- Name
    MediumSmooth,            !- Roughness
    0.0125,                  !- Thickness {m}
    0.54,                    !- Conductivity {W/m-K}
    1530,                    !- Density {kg/m3}
    2.2,                     !- Specific Heat {J/kg-K}
    0.9,                     !- Thermal Absorptance
    0.7,                     !- Solar Absorptance
    0.7;                     !- Visible Absorptance

Material,
    X25,                     !- Name
    MediumSmooth,            !- Roughness
    0.0125,                  !- Thickness {m}
    0.36,                    !- Conductivity {W/m-K}
    1055,                    !- Density {kg/m3}
    1.63,                    !- Specific Heat {J/kg-K}
    0.9,                     !- Thermal Absorptance
    0.7,                     !- Solar Absorptance
    0.7;                     !- Visible Absorptance

Material,
    A20,                     !- Name
    MediumSmooth,            !- Roughness
    0.0125,                  !- Thickness {m}
    0.22,                    !- Conductivity {W/m-K}
    770,                     !- Density {kg/m3}
    2.2,                     !- Specific Heat {J/kg-K}
    0.9,                     !- Thermal Absorptance
    0.7,                     !- Solar Absorptance
    0.7;                     !- Visible Absorptance

Material,
    A25,                     !- Name
    MediumSmooth,            !- Roughness
    0.0125,                  !- Thickness {m}
    0.18,                    !- Conductivity {W/m-K}
    785,                     !- Density {kg/m3}
    2.22,                    !- Specific Heat {J/kg-K}
    0.9,                     !- Thermal Absorptance
    0.7,                     !- Solar Absorptance
    0.7;                     !- Visible Absorptance

Material,
    Q20 BioPCM,              !- Name
    MediumSmooth,            !- Roughness
    0.125,                   !- Thickness {m}
    0.45,                    !- Conductivity {W/m-K}
    1100,                    !- Density {kg/m3}
    3.35,                    !- Specific Heat {J/kg-K}
    0.9,                     !- Thermal Absorptance
    0.7,                     !- Solar Absorptance
    0.7;                     !- Visible Absorptance

Output:Variable,*,Surface Inside Face Convection Heat Transfer Coefficient ,Timestep;
Output:Variable,*,Surface Inside Face Conduction Heat Transfer Rate per Area [W/m2],Timestep;
Output:Variable,*,Surface Outside Face Conduction Heat Transfer Rate per Area [W/m2],Timestep;
Output:Variable,*,Site Outdoor Air Drybulb Temperature [C],Timestep;
Output:Variable,*,Zone Mean Air Temperature [C],Timestep;

Material,
    PCMpouchesP4,            !- Name
    MediumSmooth,            !- Roughness
    0.006,                   !- Thickness {m}
    0.2,                     !- Conductivity {W/m-K}
    855,                     !- Density {kg/m3}
    2100,                    !- Specific Heat {J/kg-K}
    0.9,                     !- Thermal Absorptance
    0.7,                     !- Solar Absorptance
    0.7;                     !- Visible Absorptance

Material,
    PCMpouchesP3,            !- Name
    MediumSmooth,            !- Roughness
    0.0064,                  !- Thickness {m}
    0.108,                   !- Conductivity {W/m-K}
    855,                     !- Density {kg/m3}
    1920,                    !- Specific Heat {J/kg-K}
    0.9,                     !- Thermal Absorptance
    0.7,                     !- Solar Absorptance
    0.7;                     !- Visible Absorptance

Material,
    GypsumDrywall,           !- Name
    Rough,                   !- Roughness
    0.0127,                  !- Thickness {m}
    0.16,                    !- Conductivity {W/m-K}
    800,                     !- Density {kg/m3}
    1000,                    !- Specific Heat {J/kg-K}
    0.9000000,               !- Thermal Absorptance
    0.600000,                !- Solar Absorptance
    0.600000;                !- Visible Absorptance

MaterialProperty:PhaseChangeHysteresis,
    PCMpouchesP3,            !- Name
    198000,                  !- Latent Heat during the Entire Phase Change Process {J/kg}
    0.0883,                  !- Liquid State Thermal Conductivity {W/m-K}
    855,                     !- Liquid State Density {kg/m3}
    1920,                    !- Liquid State Specific Heat {J/kg-K}
    3,                       !- High Temperature Difference of Melting Curve {deltaC}
    23,                      !- Peak Melting Temperature {C}
    3,                       !- Low Temperature Difference of Melting Curve {deltaC}
    0.129,                   !- Solid State Thermal Conductivity {W/m-K}
    855,                     !- Solid State Density {kg/m3}
    1920,                    !- Solid State Specific Heat {J/kg-K}
    3,                       !- High Temperature Difference of Freezing Curve {deltaC}
    19,                      !- Peak Freezing Temperature {C}
    3;                       !- Low Temperature Difference of Freezing Curve {deltaC}

Material,
    PCMhysdwP2,              !- Name
    MediumSmooth,            !- Roughness
    0.0127,                  !- Thickness {m}
    0.1615,                  !- Conductivity {W/m-K}
    800,                     !- Density {kg/m3}
    1200,                    !- Specific Heat {J/kg-K}
    0.9,                     !- Thermal Absorptance
    0.7,                     !- Solar Absorptance
    0.7;                     !- Visible Absorptance

Material,
    Plywood,                 !- Name
    Rough,                   !- Roughness
    0.0191,                  !- Thickness {m}
    0.1,                     !- Conductivity {W/m-K}
    470,                     !- Density {kg/m3}
    1880,                    !- Specific Heat {J/kg-K}
    0.9000000,               !- Thermal Absorptance
    0.600000,                !- Solar Absorptance
    0.600000;                !- Visible Absorptance

MaterialProperty:VariableThermalConductivity,
    PCMdwP2,                 !- Name
    2,                       !- Temperature 1 {C}
    0.1615,                  !- Thermal Conductivity 1 {W/m-K}
    22,                      !- Temperature 2 {C}
    0.1615,                  !- Thermal Conductivity 2 {W/m-K}
    24,                      !- Temperature 3 {C}
    0.1615,                  !- Thermal Conductivity 3 {W/m-K}
    44,                      !- Temperature 4 {C}
    0.1615;                  !- Thermal Conductivity 4 {W/m-K}

MaterialProperty:PhaseChange,
    PCMdwP2,                 !- Name
    0,                       !- Temperature Coefficient for Thermal Conductivity {W/m-K2}
    2,                       !- Temperature 1 {C}
    1000,                    !- Enthalpy 1 {J/kg}
    22,                      !- Temperature 2 {C}
    25000,                   !- Enthalpy 2 {J/kg}
    24,                      !- Temperature 3 {C}
    66000,                   !- Enthalpy 3 {J/kg}
    44,                      !- Temperature 4 {C}
    90000;                   !- Enthalpy 4 {J/kg}

Output:Variable,*,CondFD Surface Temperature Node 21,Timestep;
Output:Variable,*,CondFD Surface Temperature Node 22,Timestep;
Output:Variable,*,CondFD Surface Temperature Node 23,Timestep;
Output:Variable,*,CondFD Surface Temperature Node 24,Timestep;
Output:Variable,*,CondFD Surface Temperature Node 25,Timestep;
Output:Variable,*,CondFD Surface Temperature Node 26,Timestep;
Output:Variable,*,CondFD Surface Temperature Node 27,Timestep;
Output:Variable,*,CondFD Surface Temperature Node 28,Timestep;

Schedule:File,
    Intweafile,              !- Name
    Temperature,             !- Schedule Type Limits Name
    D:\EnergyPlus\Simulations\Panel3\Labexp_Panel34_BC_nov30.csv,  !- File Name
    4,                       !- Column Number
    1,                       !- Rows to Skip at Top
    8760,                    !- Number of Hours of Data
    Comma,                   !- Column Separator
    Yes,                     !- Interpolate to Timestep
    1;                       !- Minutes per Item

Schedule:Compact,
    Cooling Setpoints BC,    !- Name
    Temperature,             !- Schedule Type Limits Name
    Through: 5/1,            !- Field 1
    For: AllDays,            !- Field 2
    Interpolate:Average,     !- Field 3
    Until:24:00, 21,         !- Field 5
    Through:10/1,            !- Field 6
    For:AllDays,             !- Field 7
    Interpolate:Average,     !- Field 8
    Until:  0:00, 23.5,      !- Field 10
    Until:  1:00, 23.5,      !- Field 12
    Until:  2:00, 23.5,      !- Field 14
    Until:  3:00, 23.5,      !- Field 16
    Until:  4:00, 23.5,      !- Field 18
    Until:  5:00, 23.5,      !- Field 20
    Until:  6:00, 23.5,      !- Field 22
    Until:  7:00, 23.5,      !- Field 24
    Until:  8:00, 23.5,      !- Field 26
    Until:  9:00, 21,        !- Field 28
    Until:  10:00, 21,       !- Field 30
    Until:  11:00, 21,       !- Field 32
    Until:  12:00, 21,       !- Field 34
    Until:  13:00, 21,       !- Field 36
    Until:  14:00, 21,       !- Field 38
    Until:  15:00, 21,       !- Field 40
    Until:  16:00, 21,       !- Field 42
    Until:  17:00, 21,       !- Field 44
    Until:  18:00, 25,       !- Field 46
    Until:  19:00, 25,       !- Field 48
    Until:  20:00, 25,       !- Field 50
    Until:  21:00, 25,       !- Field 52
    Until:  22:00, 23.5,     !- Field 54
    Until:  23:00, 23.5,     !- Field 56
    Until:  24:00, 23.5,     !- Field 58
    Through: 12/31,          !- Field 59
    For:AllDays,             !- Field 60
    until:24:00, 19.63;      !- Field 62

Schedule:Compact,
    Heating Setpoints BC,    !- Name
    Temperature,             !- Schedule Type Limits Name
    Through: 1/1,            !- Field 1
    For: AllDays,            !- Field 2
    Interpolate:Average,     !- Field 3
    Until:24:00, 21,         !- Field 5
    Through:1/2,             !- Field 6
    For:AllDays,             !- Field 7
    Interpolate:Average,     !- Field 8
    Until:  0:00, 20.39,     !- Field 10
    Until:  1:00, 20.39,     !- Field 12
    Until:  2:00, 20.33,     !- Field 14
    Until:  3:00, 20.25,     !- Field 16
    Until:  4:00, 20.21,     !- Field 18
    Until:  5:00, 20.15,     !- Field 20
    Until:  6:00, 20.12,     !- Field 22
    Until:  7:00, 20.09,     !- Field 24
    Until:  8:00, 20.1,      !- Field 26
    Until:  9:00, 20.22,     !- Field 28
    Until:  10:00, 20.44,    !- Field 30
    Until:  11:00, 20.71,    !- Field 32
    Until:  12:00, 20.85,    !- Field 34
    Until:  13:00, 20.92,    !- Field 36
    Until:  14:00, 20.91,    !- Field 38
    Until:  15:00, 20.98,    !- Field 40
    Until:  16:00, 21.04,    !- Field 42
    Until:  17:00, 20.98,    !- Field 44
    Until:  18:00, 20.96,    !- Field 46
    Until:  19:00, 20.9,     !- Field 48
    Until:  20:00, 20.81,    !- Field 50
    Until:  21:00, 20.72,    !- Field 52
    Until:  22:00, 20.68,    !- Field 54
    Until:  23:00, 20.6,     !- Field 56
    Until:  24:00, 20.57,    !- Field 58
    Through:1/3,             !- Field 59
    For:AllDays,             !- Field 60
    Interpolate:Average,     !- Field 61
    Until:  0:00, 20.57,     !- Field 63
    Until:  1:00, 20.51,     !- Field 65
    Until:  2:00, 20.44,     !- Field 67
    Until:  3:00, 20.41,     !- Field 69
    Until:  4:00, 20.33,     !- Field 71
    Until:  5:00, 20.29,     !- Field 73
    Until:  6:00, 20.24,     !- Field 75
    Until:  7:00, 20.2,      !- Field 77
    Until:  8:00, 20.3,      !- Field 79
    Until:  9:00, 20.5,      !- Field 81
    Until:  10:00, 20.63,    !- Field 83
    Until:  11:00, 20.77,    !- Field 85
    Until:  12:00, 20.97,    !- Field 87
    Until:  13:00, 21.09,    !- Field 89
    Until:  14:00, 21.18,    !- Field 91
    Until:  15:00, 21.17,    !- Field 93
    Until:  16:00, 21.18,    !- Field 95
    Until:  17:00, 21.2,     !- Field 97
    Until:  18:00, 21.14,    !- Field 99
    Until:  19:00, 21.02,    !- Field 101
    Until:  20:00, 20.94,    !- Field 103
    Until:  21:00, 20.83,    !- Field 105
    Until:  22:00, 20.76,    !- Field 107
    Until:  23:00, 20.69,    !- Field 109
    Until:  24:00, 20.6,     !- Field 111
    Through:1/4,             !- Field 112
    For:AllDays,             !- Field 113
    Interpolate:Average,     !- Field 114
    Until:  0:00, 20.6,      !- Field 116
    Until:  1:00, 20.56,     !- Field 118
    Until:  2:00, 20.49,     !- Field 120
    Until:  3:00, 20.43,     !- Field 122
    Until:  4:00, 20.37,     !- Field 124
    Until:  5:00, 20.32,     !- Field 126
    Until:  6:00, 20.31,     !- Field 128
    Until:  7:00, 20.28,     !- Field 130
    Until:  8:00, 20.33,     !- Field 132
    Until:  9:00, 20.5,      !- Field 134
    Until:  10:00, 20.66,    !- Field 136
    Until:  11:00, 20.87,    !- Field 138
    Until:  12:00, 21,       !- Field 140
    Until:  13:00, 21.06,    !- Field 142
    Until:  14:00, 21.14,    !- Field 144
    Until:  15:00, 21.19,    !- Field 146
    Until:  16:00, 21.22,    !- Field 148
    Until:  17:00, 21.23,    !- Field 150
    Until:  18:00, 21.17,    !- A154
    Until:  19:00, 20.99,    !- A156
    Until:  20:00, 20.85,    !- A158
    Until:  21:00, 20.72,    !- A160
    Until:  22:00, 20.64,    !- A162
    Until:  23:00, 20.58,    !- A164
    Until:  24:00, 20.53,    !- A166
    Through:1/5,             !- A167
    For:AllDays,             !- A168
    Interpolate:Average,     !- A169
    Until:  0:00, 20.53,     !- A171
    Until:  1:00, 20.48,     !- A173
    Until:  2:00, 20.45,     !- A175
    Until:  3:00, 20.39,     !- A177
    Until:  4:00, 20.34,     !- A179
    Until:  5:00, 20.28,     !- A181
    Until:  6:00, 20.22,     !- A183
    Until:  7:00, 20.19,     !- A185
    Until:  8:00, 20.19,     !- A187
    Until:  9:00, 20.29,     !- A189
    Until:  10:00, 20.5,     !- A191
    Until:  11:00, 20.6,     !- A193
    Until:  12:00, 20.78,    !- A195
    Until:  13:00, 20.93,    !- A197
    Until:  14:00, 21,       !- A199
    Until:  15:00, 21.1,     !- A201
    Until:  16:00, 21.16,    !- A203
    Until:  17:00, 21.21,    !- A205
    Until:  18:00, 21.22,    !- A207
    Until:  19:00, 21.14,    !- A209
    Until:  20:00, 21.04,    !- A211
    Until:  21:00, 20.94,    !- A213
    Until:  22:00, 20.82,    !- A215
    Until:  23:00, 20.73,    !- A217
    Until:  24:00, 20.65,    !- A219
    Through:1/6,             !- A220
    For:AllDays,             !- A221
    Interpolate:Average,     !- A222
    Until:  0:00, 20.65,     !- A224
    Until:  1:00, 20.59,     !- A226
    Until:  2:00, 20.58,     !- A228
    Until:  3:00, 20.53,     !- A230
    Until:  4:00, 20.44,     !- A232
    Until:  5:00, 20.41,     !- A234
    Until:  6:00, 20.34,     !- A236
    Until:  7:00, 20.29,     !- A238
    Until:  8:00, 20.32,     !- A240
    Until:  9:00, 20.47,     !- A242
    Until:  10:00, 20.67,    !- A244
    Until:  11:00, 20.81,    !- A246
    Until:  12:00, 20.9,     !- A248
    Until:  13:00, 21.07,    !- A250
    Until:  14:00, 21.25,    !- A252
    Until:  15:00, 21.29,    !- A254
    Until:  16:00, 21.24,    !- A256
    Until:  17:00, 21.24,    !- A258
    Until:  18:00, 21.28,    !- A260
    Until:  19:00, 21.17,    !- A262
    Until:  20:00, 21.09,    !- A264
    Until:  21:00, 20.96,    !- A266
    Until:  22:00, 20.85,    !- A268
    Until:  23:00, 20.76,    !- A270
    Until:  24:00, 20.69,    !- A272
    Through:1/7,             !- A273
    For:AllDays,             !- A274
    Interpolate:Average,     !- A275
    Until:  0:00, 20.69,     !- A277
    Until:  1:00, 20.59,     !- A279
    Until:  2:00, 20.5,      !- A281
    Until:  3:00, 20.45,     !- A283
    Until:  4:00, 20.39,     !- A285
    Until:  5:00, 20.33,     !- A287
    Until:  6:00, 20.25,     !- A289
    Until:  7:00, 20.22,     !- A291
    Until:  8:00, 20.24,     !- A293
    Until:  9:00, 20.45,     !- A295
    Until:  10:00, 20.7,     !- A297
    Until:  11:00, 20.97,    !- A299
    Until:  12:00, 21.14,    !- A301
    Until:  13:00, 21.26,    !- A303
    Until:  14:00, 21.32,    !- A305
    Until:  15:00, 21.36,    !- A307
    Until:  16:00, 21.37,    !- A309
    Until:  17:00, 21.38,    !- A311
    Until:  18:00, 21.37,    !- A313
    Until:  19:00, 21.31,    !- A315
    Until:  20:00, 21.16,    !- A317
    Until:  21:00, 21.02,    !- A319
    Until:  22:00, 20.94,    !- A321
    Until:  23:00, 20.85,    !- A323
    Until:  24:00, 20.79,    !- A325
    Through:1/8,             !- A326
    For:AllDays,             !- A327
    Interpolate:Average,     !- A328
    Until:  0:00, 20.79,     !- A330
    Until:  1:00, 20.7,      !- A332
    Until:  2:00, 20.62,     !- A334
    Until:  3:00, 20.54,     !- A336
    Until:  4:00, 20.48,     !- A338
    Until:  5:00, 20.41,     !- A340
    Until:  6:00, 20.37,     !- A342
    Until:  7:00, 20.32,     !- A344
    Until:  8:00, 20.37,     !- A346
    Until:  9:00, 20.53,     !- A348
    Until:  10:00, 20.77,    !- A350
    Until:  11:00, 20.97,    !- A352
    Until:  12:00, 21.15,    !- A354
    Until:  13:00, 21.29,    !- A356
    Until:  14:00, 21.38,    !- A358
    Until:  15:00, 21.44,    !- A360
    Until:  16:00, 21.48,    !- A362
    Until:  17:00, 21.54,    !- A364
    Until:  18:00, 21.5,     !- A366
    Until:  19:00, 21.4,     !- A368
    Until:  20:00, 21.34,    !- A370
    Until:  21:00, 21.22,    !- A372
    Until:  22:00, 21.13,    !- A374
    Until:  23:00, 21.01,    !- A376
    Until:  24:00, 20.81,    !- A378
    Through: 12/31,          !- A379
    For:AllDays,             !- A380
    until:24:00, 19.63;      !- A382

ThermostatSetpoint:SingleHeatingOrCooling,
    Single HeatingCooling Setpoint,  !- Name
    Cooling Setpoints BC;    !- Setpoint Temperature Schedule Name

Material,
    Gypsum,                  !- Name
    Rough,                   !- Roughness
    0.013,                   !- Thickness {m}
    0.153,                   !- Conductivity {W/m-K}
    549.5,                   !- Density {kg/m3}
    1089,                    !- Specific Heat {J/kg-K}
    0.9000000,               !- Thermal Absorptance
    0.600000,                !- Solar Absorptance
    0.600000;                !- Visible Absorptance

Material,
    OSB,                     !- Name
    Rough,                   !- Roughness
    0.013,                   !- Thickness {m}
    0.13,                    !- Conductivity {W/m-K}
    650,                     !- Density {kg/m3}
    1410,                    !- Specific Heat {J/kg-K}
    0.9000000,               !- Thermal Absorptance
    0.600000,                !- Solar Absorptance
    0.600000;                !- Visible Absorptance

Material,
    Clellulose,              !- Name
    Rough,                   !- Roughness
    0.14,                    !- Thickness {m}
    0.042,                   !- Conductivity {W/m-K}
    40.8,                    !- Density {kg/m3}
    1424,                    !- Specific Heat {J/kg-K}
    0.9000000,               !- Thermal Absorptance
    0.600000,                !- Solar Absorptance
    0.600000;                !- Visible Absorptance

HeatBalanceSettings:ConductionFiniteDifference,
    FullyImplicitFirstOrder, !- Difference Scheme
    1,                       !- Space Discretization Constant
    1,                       !- Relaxation Factor
    0.002;                   !- Inside Face Surface Temperature Convergence Criteria

Material,
    GypsupBoardColdtSide,    !- Name
    Rough,                   !- Roughness
    0.009,                   !- Thickness {m}
    0.21,                    !- Conductivity {W/m-K}
    700,                     !- Density {kg/m3}
    1000,                    !- Specific Heat {J/kg-K}
    0.9000000,               !- Thermal Absorptance
    0.600000,                !- Solar Absorptance
    0.600000;                !- Visible Absorptance

Output:PreprocessorMessage,
    Conversion 7.0 => 7.1,   !- Preprocessor Name
    Warning,                 !- Error Severity
    Output:Variable (old)="CondFD Outside Heat Flux to Surface",  !- Message Line 1
    conversion to Output:Variable (new)=,  !- Message Line 2
    "Surface Outside Face Conduction Heat Transfer Rate per Area",  !- Message Line 3
    has the following caution "new variable must use DisplayAdvancedReportVariables".;  !- Message Line 4

Output:Variable,*,Surface Outside Face Conduction Heat Transfer Rate per Area,Timestep;

Output:PreprocessorMessage,
    Conversion 7.0 => 7.1,   !- Preprocessor Name
    Warning,                 !- Error Severity
    Output:Variable (old)="CondFD Inside Heat Flux to Surface",  !- Message Line 1
    conversion to Output:Variable (new)=,  !- Message Line 2
    "Surface Inside Face Conduction Heat Transfer Rate per Area",  !- Message Line 3
    has the following caution "new variable must use DisplayAdvancedReportVariables".;  !- Message Line 4

Output:Variable,*,Surface Inside Face Conduction Heat Transfer Rate per Area,Timestep;

Schedule:Compact,
    Zone Control Type Sched, !- Name
    Control Type,            !- Schedule Type Limits Name
    Through: 3/31,           !- Field 1
    For: AllDays,            !- Field 2
    Until: 24:00, 3,         !- Field 4
    Through: 9/30,           !- Field 5
    For: AllDays,            !- Field 6
    Until: 24:00, 3,         !- Field 8
    Through: 12/31,          !- Field 9
    For: AllDays,            !- Field 10
    Until: 24:00, 3;         !- Field 12

ZoneControl:Thermostat,
    Zone 1 Thermostat,       !- Name
    ZONE ONE,                !- Zone or ZoneList Name
    Zone Control Type Sched, !- Control Type Schedule Name
    ThermostatSetpoint:SingleHeatingOrCooling,  !- Control 1 Object Type
    Single HeatingCooling Setpoint;  !- Control 1 Name

ZoneHVAC:IdealLoadsAirSystem,
    Zone1Air,                !- Name
    ,                        !- Availability Schedule Name
    NODE_1,                  !- Zone Supply Air Node Name
    ,                        !- Zone Exhaust Air Node Name
    ,                        !- System Inlet Air Node Name
    80,                      !- Maximum Heating Supply Air Temperature {C}
    -40,                     !- Minimum Cooling Supply Air Temperature {C}
    0.009,                   !- Maximum Heating Supply Air Humidity Ratio {kgWater/kgDryAir}
    0.009,                   !- Minimum Cooling Supply Air Humidity Ratio {kgWater/kgDryAir}
    LimitFlowRate,           !- Heating Limit
    25000,                   !- Maximum Heating Air Flow Rate {m3/s}
    ,                        !- Maximum Sensible Heating Capacity {W}
    LimitFlowRate,           !- Cooling Limit
    25000,                   !- Maximum Cooling Air Flow Rate {m3/s}
    ,                        !- Maximum Total Cooling Capacity {W}
    HeatingAvailSched,       !- Heating Availability Schedule Name
    CoolingAvailSched,       !- Cooling Availability Schedule Name
    ConstantSupplyHumidityRatio,  !- Dehumidification Control Type
    ,                        !- Cooling Sensible Heat Ratio {dimensionless}
    ConstantSupplyHumidityRatio,  !- Humidification Control Type
    ,                        !- Design Specification Outdoor Air Object Name
    ,                        !- Outdoor Air Inlet Node Name
    ,                        !- Demand Controlled Ventilation Type
    ,                        !- Outdoor Air Economizer Type
    ,                        !- Heat Recovery Type
    ,                        !- Sensible Heat Recovery Effectiveness {dimensionless}
    ;                        !- Latent Heat Recovery Effectiveness {dimensionless}

Schedule:Compact,
    HeatingAvailSched,       !- Name
    On/Off,                  !- Schedule Type Limits Name
    Through: 12/31,          !- Field 1
    For: AllDays,            !- Field 2
    Until: 24:00, 1.0;       !- Field 4

Schedule:Compact,
    CoolingAvailSched,       !- Name
    On/Off,                  !- Schedule Type Limits Name
    Through: 12/31,          !- Field 1
    For: AllDays,            !- Field 2
    Until:  7:00, 1,         !- Field 4
    Until: 17:00, 1.0,       !- Field 6
    Until: 24:00, 1;         !- Field 8

ScheduleTypeLimits,
    On/Off,                  !- Name
    0,                       !- Lower Limit Value
    1,                       !- Upper Limit Value
    DISCRETE;                !- Numeric Type

Schedule:Compact,
    Heating Setpoints,       !- Name
    Temperature,             !- Schedule Type Limits Name
    Through: 1/1,            !- Field 1
    For: AllDays,            !- Field 2
    Until: 24:00, -19.01,    !- Field 4
    Through:12/31,           !- Field 5
    For: AllDays,            !- Field 6
    Until: 24:00, -19.01;    !- Field 8

Schedule:Compact,
    Cooling Setpoints,       !- Name
    Temperature,             !- Schedule Type Limits Name
    Through: 1/1,            !- Field 1
    For:AllDays,             !- Field 2
    Until: 24:00, -19,       !- Field 4
    Through: 12/31,          !- Field 5
    For: AllDays,            !- Field 6
    Until: 24:00, -19;       !- Field 8

SurfaceProperty:ConvectionCoefficients,
    ZONE SURFACE WEST,       !- Surface Name
    Inside,                  !- Convection Coefficient 1 Location
    Value,                   !- Convection Coefficient 1 Type
    15,                      !- Convection Coefficient 1 {W/m2-K}
    ,                        !- Convection Coefficient 1 Schedule Name
    ,                        !- Convection Coefficient 1 User Curve Name
    ,                        !- Convection Coefficient 2 Location
    ,                        !- Convection Coefficient 2 Type
    0.1;                     !- Convection Coefficient 2 {W/m2-K}

Output:PreprocessorMessage,
    Conversion 7.0 => 7.1,   !- Preprocessor Name
    Warning,                 !- Error Severity
    Output:Variable (old)="CondFD Outside Surface Heat Flux",  !- Message Line 1
    conversion to Output:Variable (new)=,  !- Message Line 2
    "Surface Outside Face Conduction Heat Transfer Rate per Area",  !- Message Line 3
    has the following caution "new variable must use DisplayAdvancedReportVariables".;  !- Message Line 4

Output:Variable,*,Surface Outside Face Conduction Heat Transfer Rate per Area,Timestep;

Output:PreprocessorMessage,
    Conversion 7.0 => 7.1,   !- Preprocessor Name
    Warning,                 !- Error Severity
    Output:Variable (old)="CondFD Inside Surface Heat Flux",  !- Message Line 1
    conversion to Output:Variable (new)=,  !- Message Line 2
    "Surface Inside Face Conduction Heat Transfer Rate per Area",  !- Message Line 3
    has the following caution "new variable must use DisplayAdvancedReportVariables".;  !- Message Line 4

Output:Variable,*,Surface Inside Face Conduction Heat Transfer Rate per Area,Timestep;

Schedule:Compact,
    WallBC,                  !- Name
    Temperature,             !- Schedule Type Limits Name
    Through: 1/1,            !- Field 1
    For: AllDays,            !- Field 2
    Interpolate:Average,     !- Field 3
    Until:24:00, 19.57,      !- Field 5
    Through:1/2,             !- Field 6
    For:AllDays,             !- Field 7
    Interpolate:Average,     !- Field 8
    Until:  0:00, 19.544,    !- Field 10
    Until:  0:01, 19.556,    !- Field 12
    Until:  0:02, 19.569,    !- Field 14
    Until:  0:03, 19.581,    !- Field 16
    Until:  0:04, 19.594,    !- Field 18
    Until:  0:05, 19.606,    !- Field 20